<?xml version="1.0" encoding="UTF-8"?>

<!-- generated on 2021-11-01 01:34:49 by Eclipse SUMO netedit Version 1.10.0
<configuration xmlns:xsi="http://www.w3.org/2001/XMLSchema-instance" xsi:noNamespaceSchemaLocation="http://sumo.dlr.de/xsd/netconvertConfiguration.xsd">

    <input>
        <sumo-net-file value="D:\sumo\bin\SUMO\Sumo%20Hello\test.net.xml"/>
    </input>

    <output>
        <output-file value="D:\sumo\bin\SUMO\Sumo%20Hello\test.net.xml"/>
    </output>

    <processing>
        <geometry.min-radius.fix.railways value="false"/>
        <geometry.max-grade.fix value="false"/>
        <offset.disable-normalization value="true"/>
        <lefthand value="false"/>
    </processing>

    <junctions>
        <no-internal-links value="true"/>
        <no-turnarounds value="true"/>
        <junctions.corner-detail value="5"/>
        <junctions.limit-turn-speed value="5.5"/>
        <rectangular-lane-cut value="false"/>
    </junctions>

    <pedestrian>
        <walkingareas value="false"/>
    </pedestrian>

    <report>
        <aggregate-warnings value="5"/>
    </report>

</configuration>
-->

<net version="1.9" junctionCornerDetail="5" limitTurnSpeed="5.50" xmlns:xsi="http://www.w3.org/2001/XMLSchema-instance" xsi:noNamespaceSchemaLocation="http://sumo.dlr.de/xsd/net_file.xsd">

    <location netOffset="0.00,0.00" convBoundary="-13.50,54.38,120.23,54.38" origBoundary="-10000000000.00,-10000000000.00,10000000000.00,10000000000.00" projParameter="!"/>

    <edge id="R1" from="D2" to="D1" priority="-1">
        <lane id="R1_0" index="0" speed="13.89" length="133.73" shape="120.23,55.98 -13.50,55.98"/>
    </edge>
    <edge id="R2" from="D1" to="D2" priority="-1">
        <lane id="R2_0" index="0" speed="13.89" length="133.73" shape="-13.50,52.78 120.23,52.78"/>
    </edge>

    <junction id="D1" type="dead_end" x="-13.50" y="54.38" incLanes="R1_0" intLanes="" shape="-13.50,54.38 -13.50,57.58 -13.50,54.38"/>
    <junction id="D2" type="dead_end" x="120.23" y="54.38" incLanes="R2_0" intLanes="" shape="120.23,54.38 120.23,51.18 120.23,54.38"/>

</net>
